/*--------------------------------*- C++ -*----------------------------------*\
| =========                 |                                                 |
| \\      /  F ield         | foam-extend: Open Source CFD                    |
|  \\    /   O peration     | Version:     3.2                                |
|   \\  /    A nd           | Web:         http://www.foam-extend.org         |
|    \\/     M anipulation  | For copyright notice see file Copyright         |
\*---------------------------------------------------------------------------*/
FoamFile
{
    version     2.0;
    format      ascii;
    class       polyBoundaryMesh;
    location    "constant/polyMesh";
    object      boundary;
}
// * * * * * * * * * * * * * * * * * * * * * * * * * * * * * * * * * * * * * //

3
(
    sideWalls
    {
        type            patch;
        nFaces          3200;
        startFace       46000;
    }
    outlet
    {
        type            patch;
        nFaces          400;
        startFace       49200;
    }
    inlet
    {
        type            patch;
        nFaces          400;
        startFace       49600;
    }
)

// ************************************************************************* //
